 fsurdat = '/glade/work/marielj/inputdata/lnd/clm2/surfdata_map/arcticgrass-organic/surfdata_1x1pt_US-MBP_hist_16pfts_Irrig_CMIP6_simyr2000_c230220_v3.nc'
 finidat = '/glade/u/home/marielj/clm_frost/cesm_cases/spinup/finaldata/1ptBGC_spinup_grass.clm2.r.0201-01-01-00000.nc'
 hist_nhtfrq = 0,-24
 hist_mfilt  = 1200,365
 hist_fincl2 = 'RAIN', 'H2OSNO', 'QSOIL', 'QVEGT', 'QSNOMELT', 'QRUNOFF', 'ZWT', 'ZWT_PERCH', 'SNOW', 'TSA', 'SOILICE', 'QINFL', 'QOVER', 'H2OSOI', 'TSOI'
 paramfile = '/glade/work/marielj/inputdata/lnd/clm2/paramdata/clm5_params_augmented_base.c171117.nc'
 soil_fmax = 1.3827267515334219e-12
 baseflow_scalar = 2.2636421640139125e-12