!----------------------------------------------------------------------------------
! Users should add all user specific namelist changes below in the form of 
! namelist_var = new_namelist_value 
!
! EXCEPTIONS: 
! Set use_cndv           by the compset you use and the CLM_BLDNML_OPTS -dynamic_vegetation setting
! Set use_vichydro       by the compset you use and the CLM_BLDNML_OPTS -vichydro           setting
! Set use_cn             by the compset you use and CLM_BLDNML_OPTS -bgc  setting
! Set use_crop           by the compset you use and CLM_BLDNML_OPTS -crop setting
! Set spinup_state       by the CLM_BLDNML_OPTS -bgc_spinup      setting
! Set co2_ppmv           with CCSM_CO2_PPMV                      option
! Set fatmlndfrc         with LND_DOMAIN_PATH/LND_DOMAIN_FILE    options
! Set finidat            with RUN_REFCASE/RUN_REFDATE/RUN_REFTOD options for hybrid or branch cases
!                        (includes $inst_string for multi-ensemble cases)
!                        or with CLM_FORCE_COLDSTART to do a cold start
!                        or set it with an explicit filename here.
! Set maxpatch_glc       with GLC_NEC                            option
! Set glc_do_dynglacier  with GLC_TWO_WAY_COUPLING               env variable
!----------------------------------------------------------------------------------

 fsurdat = '/glade/work/marielj/inputdata/lnd/clm2/surfdata_map/hillslope/surfdata_1x1pt_US-MBP_hist_16pfts_Irrig_CMIP6_simyr2000_HAND_3_col_hillslope_lagg.nc'
 finidat = '/glade/u/home/marielj/clm_frost/cesm_cases/spinup/finaldata/1ptBGC_spinup_grass.clm2.r.0201-01-01-00000.nc'
 use_hillslope = .true.
 use_hillslope_routing = .true.
 use_init_interp = .true.
 hillslope_soil_profile_method = 'SetLowlandUpland'
 hillslope_pft_distribution_method = 'PftLowlandUpland'
 hist_nhtfrq = 0,0,-24,-24
 hist_mfilt = 1,1,365,365
 hist_dov2xy = .true.,.false.,.true.,.false.
 hist_fincl2 = 'RAIN', 'H2OSNO', 'QSOIL', 'QVEGT', 'QSNOMELT', 'QRUNOFF', 'ZWT', 'ZWT_PERCH', 'SNOW', 'TSA', 'SOILICE', 'QINFL', 'QOVER', 'H2OSOI', 'TSOI', 'FSAT', 'FSNO', 'QICE'
 hist_fincl3 = 'RAIN', 'H2OSNO', 'QSOIL', 'QVEGT', 'QSNOMELT', 'QRUNOFF', 'ZWT', 'ZWT_PERCH', 'SNOW', 'TSA', 'SOILICE', 'QINFL', 'QOVER', 'H2OSOI', 'TSOI', 'FSAT', 'FSNO', 'QICE'
 hist_fincl4 = 'RAIN', 'H2OSNO', 'QSOIL', 'QVEGT', 'QSNOMELT', 'QRUNOFF', 'ZWT', 'ZWT_PERCH', 'SNOW', 'TSA', 'SOILICE', 'QINFL', 'QOVER', 'H2OSOI', 'TSOI', 'FSAT', 'FSNO', 'QICE'
